<?xml version="1.0" encoding="UTF-8"?>

<!-- generated on 2026-07-02 16:17:47.461345 by Eclipse SUMO osmWebWizard.py v1_27_0+0000-e238ea04b71
<configuration>
    <net-file value="C:\Users\Fatou Ndiaye\OneDrive\Desktop\projet_sacre_coeur\2026-07-02-16-16-50\osm.net.xml.gz"/>
    <output-trip-file value="C:\Users\Fatou Ndiaye\OneDrive\Desktop\projet_sacre_coeur\2026-07-02-16-16-50\osm.passenger.trips.xml"/>
    <route-file value="C:\Users\Fatou Ndiaye\OneDrive\Desktop\projet_sacre_coeur\2026-07-02-16-16-50\osm.passenger.rou.xml"/>
    <prefix value="veh"/>
    <trip-attributes value="departLane=&quot;best&quot;"/>
    <fringe-start-attributes value="departSpeed=&quot;max&quot;"/>
    <vehicle-class value="passenger"/>
    <lanes value="True"/>
    <fringe-factor value="5"/>
    <allow-fringe.min-length value="1000.0"/>
    <edge-permission value="passenger"/>
    <via-edge-types value="highway.motorway,highway.motorway_link,highway.trunk_link,highway.primary_link,highway.secondary_link,highway.tertiary_link"/>
    <min-distance value="300.0"/>
    <min-distance.fringe value="10.0"/>
    <remove-loops value="True"/>
    <insertion-density value="12.0"/>
</configuration>
-->

<routes xmlns:xsi="http://www.w3.org/2001/XMLSchema-instance" xsi:noNamespaceSchemaLocation="http://sumo.dlr.de/xsd/routes_file.xsd">
    <vType id="veh_passenger" vClass="passenger"/>
    <trip id="veh0" depart="0.00" from="246145174#0" to="-151402038#1" departLane="best" type="veh_passenger" departSpeed="max"/>
    <trip id="veh1" depart="1.33" from="-365719714#1" to="-336503760" departLane="best" type="veh_passenger"/>
    <trip id="veh2" depart="2.67" from="30673889#5" to="27294934#2" departLane="best" type="veh_passenger"/>
    <trip id="veh3" depart="4.00" from="-281471381" to="159192443#7" departLane="best" type="veh_passenger" departSpeed="max"/>
    <trip id="veh4" depart="5.33" from="-151402042" to="-281471383#0" departLane="best" type="veh_passenger"/>
    <trip id="veh5" depart="6.67" from="252664251#4" to="166684846#7" departLane="best" type="veh_passenger"/>
    <trip id="veh6" depart="8.00" from="-281471383#6" to="206450298" departLane="best" type="veh_passenger"/>
    <trip id="veh7" depart="9.33" from="402203863#3" to="-108160081#5" departLane="best" type="veh_passenger"/>
    <trip id="veh8" depart="10.67" from="401691376#2" to="27295137#4" departLane="best" type="veh_passenger"/>
    <trip id="veh9" depart="12.00" from="-511687495" to="-27293925#0" departLane="best" type="veh_passenger" departSpeed="max"/>
    <trip id="veh10" depart="13.33" from="644473810#0" to="-52733208#1" departLane="best" type="veh_passenger"/>
    <trip id="veh11" depart="14.67" from="-176334972" to="-197492564#8" departLane="best" type="veh_passenger" departSpeed="max"/>
    <trip id="veh12" depart="16.00" from="401691376#5" to="336376995#0" departLane="best" type="veh_passenger"/>
    <trip id="veh13" depart="17.33" from="159192443#0" to="798118785#2" departLane="best" type="veh_passenger"/>
    <trip id="veh14" depart="18.66" from="-52733257" to="167467051" departLane="best" type="veh_passenger" departSpeed="max"/>
    <trip id="veh15" depart="20.00" from="44325981#1" to="248631560#2" departLane="best" type="veh_passenger"/>
    <trip id="veh16" depart="21.33" from="514797583" to="197492564#13" departLane="best" type="veh_passenger" departSpeed="max"/>
    <trip id="veh17" depart="22.66" from="27295013#10" to="-162937128#0" departLane="best" type="veh_passenger"/>
    <trip id="veh18" depart="24.00" from="-30673882#0" to="-493001453" departLane="best" type="veh_passenger"/>
    <trip id="veh19" depart="25.33" from="-167469366#0" to="-361950950#0" departLane="best" type="veh_passenger"/>
    <trip id="veh20" depart="26.66" from="-197708951#1" to="-44307200#0" departLane="best" type="veh_passenger"/>
    <trip id="veh21" depart="28.00" from="243919331#0" to="-52733388#2" departLane="best" type="veh_passenger"/>
    <trip id="veh22" depart="29.33" from="-52733225#0" to="-30673889#1" departLane="best" type="veh_passenger"/>
    <trip id="veh23" depart="30.66" from="-365714410" to="639145491" departLane="best" type="veh_passenger"/>
    <trip id="veh24" depart="32.00" from="252664251#0" to="243918588#5" departLane="best" type="veh_passenger"/>
    <trip id="veh25" depart="33.33" from="-27294211#1" to="335743679" departLane="best" type="veh_passenger"/>
    <trip id="veh26" depart="34.66" from="-27293917#4" to="-52733443#4" departLane="best" type="veh_passenger"/>
    <trip id="veh27" depart="36.00" from="493019789#3" to="374385742#5" departLane="best" type="veh_passenger"/>
    <trip id="veh28" depart="37.33" from="-30673884#2" to="-151402109#0" departLane="best" type="veh_passenger"/>
    <trip id="veh29" depart="38.66" from="-44326426" to="-402203863#4" departLane="best" type="veh_passenger"/>
    <trip id="veh30" depart="40.00" from="-279485386#1" to="642650044#5" departLane="best" type="veh_passenger"/>
    <trip id="veh31" depart="41.33" from="52141990#0" to="-511687511" departLane="best" type="veh_passenger"/>
    <trip id="veh32" depart="42.66" from="253592284" to="-642650044#3" departLane="best" type="veh_passenger"/>
    <trip id="veh33" depart="44.00" from="-361951451#0" to="-365719685#6" departLane="best" type="veh_passenger"/>
    <trip id="veh34" depart="45.33" from="167469362" to="52733260#0" departLane="best" type="veh_passenger"/>
    <trip id="veh35" depart="46.66" from="-52733416#10" to="-336377152#2" departLane="best" type="veh_passenger"/>
    <trip id="veh36" depart="48.00" from="97969615" to="159192462#9" departLane="best" type="veh_passenger"/>
    <trip id="veh37" depart="49.33" from="-168882676#3" to="-162937130#0" departLane="best" type="veh_passenger"/>
    <trip id="veh38" depart="50.66" from="-206450297" to="252664251#1" departLane="best" type="veh_passenger"/>
    <trip id="veh39" depart="51.99" from="393063209#0" to="-808086803#0" departLane="best" type="veh_passenger" departSpeed="max"/>
    <trip id="veh40" depart="53.33" from="-164417473#2" to="-52733457#0" departLane="best" type="veh_passenger"/>
    <trip id="veh41" depart="54.66" from="806118240#2" to="514797596#1" departLane="best" type="veh_passenger"/>
    <trip id="veh42" depart="55.99" from="27294209#1" to="166325125#2" departLane="best" type="veh_passenger"/>
    <trip id="veh43" depart="57.33" from="-365714410" to="27283564#4" departLane="best" type="veh_passenger"/>
    <trip id="veh44" depart="58.66" from="-208485167#0" to="-97969617#0" departLane="best" type="veh_passenger"/>
    <trip id="veh45" depart="59.99" from="-806118239" to="644473805#2" departLane="best" type="veh_passenger"/>
    <trip id="veh46" depart="61.33" from="52141989#2" to="-395950826#0" departLane="best" type="veh_passenger"/>
    <trip id="veh47" depart="62.66" from="108176357#1" to="-27295013#0" departLane="best" type="veh_passenger"/>
    <trip id="veh48" depart="63.99" from="52733388#0" to="52141408#1" departLane="best" type="veh_passenger"/>
    <trip id="veh49" depart="65.33" from="-44307192" to="255634571#0" departLane="best" type="veh_passenger" departSpeed="max"/>
    <trip id="veh50" depart="66.66" from="361951443#0" to="166458110#3" departLane="best" type="veh_passenger" departSpeed="max"/>
    <trip id="veh51" depart="67.99" from="365719714#2" to="164417145#2" departLane="best" type="veh_passenger"/>
    <trip id="veh52" depart="69.33" from="-1078184853" to="-52141414#1" departLane="best" type="veh_passenger" departSpeed="max"/>
    <trip id="veh53" depart="70.66" from="-1228585056" to="52733456#1" departLane="best" type="veh_passenger" departSpeed="max"/>
    <trip id="veh54" depart="71.99" from="52141996#1" to="475874533#3" departLane="best" type="veh_passenger"/>
    <trip id="veh55" depart="73.33" from="52141994#0" to="644356064" departLane="best" type="veh_passenger"/>
    <trip id="veh56" depart="74.66" from="-167986331#1" to="151402028" departLane="best" type="veh_passenger"/>
    <trip id="veh57" depart="75.99" from="-166684846#11" to="361977809#2" departLane="best" type="veh_passenger"/>
    <trip id="veh58" depart="77.33" from="361951443#5" to="-252664247#1" departLane="best" type="veh_passenger"/>
    <trip id="veh59" depart="78.66" from="108059451#1" to="167467050#1" departLane="best" type="veh_passenger"/>
    <trip id="veh60" depart="79.99" from="-361951451#1" to="52141416#3" departLane="best" type="veh_passenger"/>
    <trip id="veh61" depart="81.33" from="-642650044#4" to="-330255479#1" departLane="best" type="veh_passenger"/>
    <trip id="veh62" depart="82.66" from="159192453#3" to="336376995#1" departLane="best" type="veh_passenger"/>
    <trip id="veh63" depart="83.99" from="-27295051#2" to="-511687503" departLane="best" type="veh_passenger" departSpeed="max"/>
    <trip id="veh64" depart="85.32" from="961588263#1-AddedOffRampEdge" to="27293898#4" departLane="best" type="veh_passenger"/>
    <trip id="veh65" depart="86.66" from="-644473812#1" to="164089209#0" departLane="best" type="veh_passenger" departSpeed="max"/>
    <trip id="veh66" depart="87.99" from="-243918563#4" to="-336503766#0" departLane="best" type="veh_passenger"/>
    <trip id="veh67" depart="89.32" from="-511684053#1" to="206450295#0" departLane="best" type="veh_passenger" departSpeed="max"/>
    <trip id="veh68" depart="90.66" from="-30673889#3" to="-336377159#0" departLane="best" type="veh_passenger"/>
    <trip id="veh69" depart="91.99" from="-166684846#7" to="253106347#2" departLane="best" type="veh_passenger"/>
    <trip id="veh70" depart="93.32" from="-30673884#1" to="52733298#1" departLane="best" type="veh_passenger"/>
    <trip id="veh71" depart="94.66" from="511687507#4" to="-166684847#10" departLane="best" type="veh_passenger"/>
    <trip id="veh72" depart="95.99" from="-336376997#8" to="27294429#10" departLane="best" type="veh_passenger"/>
    <trip id="veh73" depart="97.32" from="-280940052#2" to="-253106348" departLane="best" type="veh_passenger"/>
    <trip id="veh74" depart="98.66" from="581407681" to="176334972" departLane="best" type="veh_passenger"/>
    <trip id="veh75" depart="99.99" from="108059443#5" to="395950807#2" departLane="best" type="veh_passenger"/>
    <trip id="veh76" depart="101.32" from="402184567#0" to="-27295299#3" departLane="best" type="veh_passenger"/>
    <trip id="veh77" depart="102.66" from="-194603031#2" to="-808094039#1" departLane="best" type="veh_passenger"/>
    <trip id="veh78" depart="103.99" from="281753932#0" to="27294446#3" departLane="best" type="veh_passenger" departSpeed="max"/>
    <trip id="veh79" depart="105.32" from="8116411#0" to="-203559270#2" departLane="best" type="veh_passenger" departSpeed="max"/>
    <trip id="veh80" depart="106.66" from="-52733420#2" to="-52733219#2" departLane="best" type="veh_passenger"/>
    <trip id="veh81" depart="107.99" from="514797583" to="-365719704#1" departLane="best" type="veh_passenger" departSpeed="max"/>
    <trip id="veh82" depart="109.32" from="-27295009#4" to="108059460#5" departLane="best" type="veh_passenger"/>
    <trip id="veh83" depart="110.66" from="-642650038" to="-44307200#2" departLane="best" type="veh_passenger"/>
    <trip id="veh84" depart="111.99" from="-336503767#3" to="52733430#2" departLane="best" type="veh_passenger"/>
    <trip id="veh85" depart="113.32" from="-644503895" to="516358911" departLane="best" type="veh_passenger"/>
    <trip id="veh86" depart="114.66" from="97969618#1" to="493001458#4" departLane="best" type="veh_passenger"/>
    <trip id="veh87" depart="115.99" from="806118237#1" to="52733434" departLane="best" type="veh_passenger"/>
    <trip id="veh88" depart="117.32" from="108160076" to="-335249767#2" departLane="best" type="veh_passenger" departSpeed="max"/>
    <trip id="veh89" depart="118.65" from="-52733257" to="8116411#5" departLane="best" type="veh_passenger" departSpeed="max"/>
    <trip id="veh90" depart="119.99" from="-361951451#2" to="395950807#1" departLane="best" type="veh_passenger"/>
    <trip id="veh91" depart="121.32" from="-807153607" to="-808086803#0" departLane="best" type="veh_passenger"/>
    <trip id="veh92" depart="122.65" from="644473810#1" to="961588263#1-AddedOffRampEdge" departLane="best" type="veh_passenger"/>
    <trip id="veh93" depart="123.99" from="164204509" to="281972134" departLane="best" type="veh_passenger"/>
    <trip id="veh94" depart="125.32" from="-27283716#1" to="-493019790#0" departLane="best" type="veh_passenger"/>
    <trip id="veh95" depart="126.65" from="798118786" to="197492564#7" departLane="best" type="veh_passenger"/>
    <trip id="veh96" depart="127.99" from="159192464" to="354033480#1" departLane="best" type="veh_passenger" departSpeed="max"/>
    <trip id="veh97" depart="129.32" from="1096879044#0" to="511684053#1" departLane="best" type="veh_passenger"/>
    <trip id="veh98" depart="130.65" from="-27283719#3" to="644487231#3" departLane="best" type="veh_passenger"/>
    <trip id="veh99" depart="131.99" from="-167469366#1" to="-27295137#3" departLane="best" type="veh_passenger"/>
    <trip id="veh100" depart="133.32" from="168882665" to="27294930#0" departLane="best" type="veh_passenger"/>
    <trip id="veh101" depart="134.65" from="-336376995#0" to="-243918588#4" departLane="best" type="veh_passenger"/>
    <trip id="veh102" depart="135.99" from="52733235#4" to="-365719685#2" departLane="best" type="veh_passenger"/>
    <trip id="veh103" depart="137.32" from="168882661" to="248631560#3" departLane="best" type="veh_passenger"/>
    <trip id="veh104" depart="138.65" from="-639436359#1" to="203559526#1" departLane="best" type="veh_passenger"/>
    <trip id="veh105" depart="139.99" from="151402042" to="54268968#1" departLane="best" type="veh_passenger"/>
    <trip id="veh106" depart="141.32" from="-27295137#5" to="281648554#0" departLane="best" type="veh_passenger"/>
    <trip id="veh107" depart="142.65" from="27293898#0" to="-493019806#6" departLane="best" type="veh_passenger"/>
    <trip id="veh108" depart="143.99" from="-44418752#2" to="361951438#0" departLane="best" type="veh_passenger"/>
    <trip id="veh109" depart="145.32" from="-166684847#13" to="108160110#1" departLane="best" type="veh_passenger"/>
    <trip id="veh110" depart="146.65" from="-166684847#4" to="-335249767#0" departLane="best" type="veh_passenger"/>
    <trip id="veh111" depart="147.99" from="52733180#1" to="52141998#0" departLane="best" type="veh_passenger"/>
    <trip id="veh112" depart="149.32" from="-52733219#1" to="-27293954#1" departLane="best" type="veh_passenger"/>
    <trip id="veh113" depart="150.65" from="475874533#1" to="27295301#4" departLane="best" type="veh_passenger"/>
    <trip id="veh114" depart="151.99" from="206356955#6" to="812940453#0" departLane="best" type="veh_passenger"/>
    <trip id="veh115" depart="153.32" from="253106354#1" to="-108160084#0" departLane="best" type="veh_passenger"/>
    <trip id="veh116" depart="154.65" from="44307185" to="-493019806#3" departLane="best" type="veh_passenger"/>
    <trip id="veh117" depart="155.98" from="27283703#1" to="639436362#1" departLane="best" type="veh_passenger"/>
    <trip id="veh118" depart="157.32" from="-252519167#3" to="-243918562#1" departLane="best" type="veh_passenger" departSpeed="max"/>
    <trip id="veh119" depart="158.65" from="-206356955#7" to="167467053" departLane="best" type="veh_passenger"/>
    <trip id="veh120" depart="159.98" from="-365719707#0" to="243918562#1" departLane="best" type="veh_passenger"/>
    <trip id="veh121" depart="161.32" from="27295302#2" to="-281753932#1" departLane="best" type="veh_passenger"/>
    <trip id="veh122" depart="162.65" from="243919329" to="-395950826#0" departLane="best" type="veh_passenger" departSpeed="max"/>
    <trip id="veh123" depart="163.98" from="108160084#0" to="52733298#1" departLane="best" type="veh_passenger" departSpeed="max"/>
    <trip id="veh124" depart="165.32" from="-642650044#5" to="-44307198#0" departLane="best" type="veh_passenger" departSpeed="max"/>
    <trip id="veh125" depart="166.65" from="-108059447#9" to="366090185#1" departLane="best" type="veh_passenger"/>
    <trip id="veh126" depart="167.98" from="243919335#0" to="-395950811#3" departLane="best" type="veh_passenger"/>
    <trip id="veh127" depart="169.32" from="336376997#0" to="167467050#1" departLane="best" type="veh_passenger"/>
    <trip id="veh128" depart="170.65" from="-644381437" to="-108160084#6" departLane="best" type="veh_passenger"/>
    <trip id="veh129" depart="171.98" from="-167467051" to="52733187#0" departLane="best" type="veh_passenger" departSpeed="max"/>
    <trip id="veh130" depart="173.32" from="52733306#2" to="166684847#1" departLane="best" type="veh_passenger"/>
    <trip id="veh131" depart="174.65" from="475874533#3" to="203559271#2" departLane="best" type="veh_passenger"/>
    <trip id="veh132" depart="175.98" from="-255555573" to="-252664243" departLane="best" type="veh_passenger" departSpeed="max"/>
    <trip id="veh133" depart="177.32" from="-44325945#5" to="52733267#2" departLane="best" type="veh_passenger"/>
    <trip id="veh134" depart="178.65" from="393296407#0" to="514797596#0" departLane="best" type="veh_passenger"/>
    <trip id="veh135" depart="179.98" from="52733274#3" to="-30673889#4" departLane="best" type="veh_passenger"/>
    <trip id="veh136" depart="181.32" from="-336503767#1" to="-206356957" departLane="best" type="veh_passenger"/>
    <trip id="veh137" depart="182.65" from="366090198" to="52733198#1" departLane="best" type="veh_passenger"/>
    <trip id="veh138" depart="183.98" from="-52733433#1" to="252519167#3" departLane="best" type="veh_passenger"/>
    <trip id="veh139" depart="185.32" from="-27283716#0" to="52733457#2" departLane="best" type="veh_passenger"/>
    <trip id="veh140" depart="186.65" from="516358918#1" to="807153607" departLane="best" type="veh_passenger"/>
    <trip id="veh141" depart="187.98" from="-151402033" to="336377152#5" departLane="best" type="veh_passenger"/>
    <trip id="veh142" depart="189.31" from="395950814#0" to="517797931" departLane="best" type="veh_passenger"/>
    <trip id="veh143" depart="190.65" from="402203863#9" to="-402203863#0" departLane="best" type="veh_passenger"/>
    <trip id="veh144" depart="191.98" from="374385742#5" to="-208485169#0" departLane="best" type="veh_passenger"/>
    <trip id="veh145" depart="193.31" from="52141416#1" to="511687507#5" departLane="best" type="veh_passenger"/>
    <trip id="veh146" depart="194.65" from="-281648554#3" to="44307206#1" departLane="best" type="veh_passenger"/>
    <trip id="veh147" depart="195.98" from="-808094036#1" to="-493021642#0" departLane="best" type="veh_passenger"/>
    <trip id="veh148" depart="197.31" from="393296401#0" to="-354033478#0" departLane="best" type="veh_passenger"/>
    <trip id="veh149" depart="198.65" from="-151402026#0" to="-279485387#0" departLane="best" type="veh_passenger"/>
    <trip id="veh150" depart="199.98" from="644998347" to="-44307206#1" departLane="best" type="veh_passenger"/>
    <trip id="veh151" depart="201.31" from="246145174#0" to="-644402553" departLane="best" type="veh_passenger" departSpeed="max"/>
    <trip id="veh152" depart="202.65" from="808094036#2" to="165379584#1" departLane="best" type="veh_passenger"/>
    <trip id="veh153" depart="203.98" from="639436354#0" to="-243918562#1" departLane="best" type="veh_passenger" departSpeed="max"/>
    <trip id="veh154" depart="205.31" from="806118239" to="-27295013#0" departLane="best" type="veh_passenger"/>
    <trip id="veh155" depart="206.65" from="644495050#7" to="-402184567#1" departLane="best" type="veh_passenger"/>
    <trip id="veh156" depart="207.98" from="-206450291" to="-97969616" departLane="best" type="veh_passenger"/>
    <trip id="veh157" depart="209.31" from="281753932#0" to="-511687507#4" departLane="best" type="veh_passenger" departSpeed="max"/>
    <trip id="veh158" depart="210.65" from="197492564#8" to="162937128#1" departLane="best" type="veh_passenger"/>
    <trip id="veh159" depart="211.98" from="-52733284" to="197492564#10" departLane="best" type="veh_passenger"/>
    <trip id="veh160" depart="213.31" from="-361948885" to="281213104" departLane="best" type="veh_passenger"/>
    <trip id="veh161" depart="214.65" from="-108059447#1" to="52733433#5" departLane="best" type="veh_passenger"/>
    <trip id="veh162" depart="215.98" from="159192448#0" to="281972135#1" departLane="best" type="veh_passenger"/>
    <trip id="veh163" depart="217.31" from="336376997#4" to="27294429#4" departLane="best" type="veh_passenger"/>
    <trip id="veh164" depart="218.65" from="-52733185#2" to="-166684846#7" departLane="best" type="veh_passenger" departSpeed="max"/>
    <trip id="veh165" depart="219.98" from="27283706#0" to="-52141993" departLane="best" type="veh_passenger"/>
    <trip id="veh166" depart="221.31" from="-44326000#1" to="493019832#1" departLane="best" type="veh_passenger"/>
    <trip id="veh167" depart="222.64" from="279485387#8" to="-493019807#0" departLane="best" type="veh_passenger"/>
    <trip id="veh168" depart="223.98" from="-44325959#1" to="-644473813#1" departLane="best" type="veh_passenger"/>
    <trip id="veh169" depart="225.31" from="-52733420#1" to="-493019788#3" departLane="best" type="veh_passenger"/>
    <trip id="veh170" depart="226.64" from="-243919333#1" to="-807153606" departLane="best" type="veh_passenger" departSpeed="max"/>
    <trip id="veh171" depart="227.98" from="639436354#1" to="27294936#1" departLane="best" type="veh_passenger"/>
    <trip id="veh172" depart="229.31" from="52733298#0" to="243919336#2" departLane="best" type="veh_passenger"/>
    <trip id="veh173" depart="230.64" from="-44307196#1" to="166684847#8" departLane="best" type="veh_passenger"/>
    <trip id="veh174" depart="231.98" from="-1078184853" to="-44326000#2" departLane="best" type="veh_passenger" departSpeed="max"/>
    <trip id="veh175" depart="233.31" from="-644429019" to="197708951#0" departLane="best" type="veh_passenger"/>
    <trip id="veh176" depart="234.64" from="253217554#0" to="108176290#4" departLane="best" type="veh_passenger"/>
    <trip id="veh177" depart="235.98" from="-644495050#5" to="-335249767#2" departLane="best" type="veh_passenger"/>
    <trip id="veh178" depart="237.31" from="108059447#1" to="52733274#2" departLane="best" type="veh_passenger"/>
    <trip id="veh179" depart="238.64" from="-167469374#0" to="162937143" departLane="best" type="veh_passenger"/>
    <trip id="veh180" depart="239.98" from="243919325" to="-52733198#0" departLane="best" type="veh_passenger" departSpeed="max"/>
    <trip id="veh181" depart="241.31" from="44307193#2" to="361950954#0" departLane="best" type="veh_passenger"/>
    <trip id="veh182" depart="242.64" from="27293912#1" to="-336503766#0" departLane="best" type="veh_passenger"/>
    <trip id="veh183" depart="243.98" from="-27295050#0" to="-151402035#0" departLane="best" type="veh_passenger"/>
    <trip id="veh184" depart="245.31" from="-336500840#2" to="1118823637" departLane="best" type="veh_passenger"/>
    <trip id="veh185" depart="246.64" from="-52733460#6" to="252664252#2" departLane="best" type="veh_passenger"/>
    <trip id="veh186" depart="247.98" from="-27295013#2" to="27295054#0" departLane="best" type="veh_passenger"/>
    <trip id="veh187" depart="249.31" from="108176290#3" to="-361977809#0" departLane="best" type="veh_passenger"/>
    <trip id="veh188" depart="250.64" from="253592294#0" to="-108160059#9" departLane="best" type="veh_passenger"/>
    <trip id="veh189" depart="251.98" from="336503766#3" to="365719716#1" departLane="best" type="veh_passenger"/>
    <trip id="veh190" depart="253.31" from="-206356955#5" to="-808086807#0" departLane="best" type="veh_passenger"/>
    <trip id="veh191" depart="254.64" from="-27294429#14" to="644473811#2" departLane="best" type="veh_passenger"/>
    <trip id="veh192" depart="255.97" from="151402008#0" to="-162937136#2" departLane="best" type="veh_passenger"/>
    <trip id="veh193" depart="257.31" from="-336503766#3" to="493019834#1" departLane="best" type="veh_passenger"/>
    <trip id="veh194" depart="258.64" from="-808086801" to="411081519" departLane="best" type="veh_passenger" departSpeed="max"/>
    <trip id="veh195" depart="259.97" from="27283716#3" to="812940453#3" departLane="best" type="veh_passenger"/>
    <trip id="veh196" depart="261.31" from="168882667" to="644419813#0" departLane="best" type="veh_passenger"/>
    <trip id="veh197" depart="262.64" from="52733243#0" to="243919333#1" departLane="best" type="veh_passenger"/>
    <trip id="veh198" depart="263.97" from="279485387#4" to="159192443#5" departLane="best" type="veh_passenger"/>
    <trip id="veh199" depart="265.31" from="44326000#0" to="166684847#7" departLane="best" type="veh_passenger"/>
    <trip id="veh200" depart="266.64" from="52733269#1" to="336503767#0" departLane="best" type="veh_passenger"/>
    <trip id="veh201" depart="267.97" from="-336503764#0" to="255555572" departLane="best" type="veh_passenger"/>
    <trip id="veh202" depart="269.31" from="361951443#5" to="164089209#7" departLane="best" type="veh_passenger"/>
    <trip id="veh203" depart="270.64" from="23513115#3" to="-44307193#1" departLane="best" type="veh_passenger"/>
    <trip id="veh204" depart="271.97" from="-167469358#0" to="-44325986#0" departLane="best" type="veh_passenger"/>
    <trip id="veh205" depart="273.31" from="-365719704#2" to="-52141393#4" departLane="best" type="veh_passenger"/>
    <trip id="veh206" depart="274.64" from="159192462#11" to="-260593501" departLane="best" type="veh_passenger"/>
    <trip id="veh207" depart="275.97" from="-330255479#2" to="27295050#2" departLane="best" type="veh_passenger"/>
    <trip id="veh208" depart="277.31" from="27295013#7" to="-165379583" departLane="best" type="veh_passenger"/>
    <trip id="veh209" depart="278.64" from="-52733433#7" to="166684846#10" departLane="best" type="veh_passenger"/>
    <trip id="veh210" depart="279.97" from="-52733462#2" to="-30673881#7" departLane="best" type="veh_passenger"/>
    <trip id="veh211" depart="281.31" from="-639436362#2" to="52733297#1" departLane="best" type="veh_passenger"/>
    <trip id="veh212" depart="282.64" from="167469359" to="27295051#2" departLane="best" type="veh_passenger"/>
    <trip id="veh213" depart="283.97" from="511687494" to="365719704#0" departLane="best" type="veh_passenger" departSpeed="max"/>
    <trip id="veh214" depart="285.31" from="-52733267#1" to="-108160081#1" departLane="best" type="veh_passenger"/>
    <trip id="veh215" depart="286.64" from="-52141402#1" to="361951443#1" departLane="best" type="veh_passenger"/>
    <trip id="veh216" depart="287.97" from="511684053#0" to="644473805#1" departLane="best" type="veh_passenger"/>
    <trip id="veh217" depart="289.30" from="-639436359#0" to="354033478#2" departLane="best" type="veh_passenger"/>
    <trip id="veh218" depart="290.64" from="162937130#0" to="23513115#3" departLane="best" type="veh_passenger" departSpeed="max"/>
    <trip id="veh219" depart="291.97" from="-281471383#6" to="-336377152#3" departLane="best" type="veh_passenger"/>
    <trip id="veh220" depart="293.30" from="-644473809#6" to="-151402091#0" departLane="best" type="veh_passenger"/>
    <trip id="veh221" depart="294.64" from="-97969616" to="-252664245#0" departLane="best" type="veh_passenger"/>
    <trip id="veh222" depart="295.97" from="208775833#3" to="-151402051#0" departLane="best" type="veh_passenger"/>
    <trip id="veh223" depart="297.30" from="-52733375#0" to="167986341" departLane="best" type="veh_passenger"/>
    <trip id="veh224" depart="298.64" from="-151402049#2" to="27283703#4" departLane="best" type="veh_passenger"/>
    <trip id="veh225" depart="299.97" from="-252664244" to="108176290#1" departLane="best" type="veh_passenger" departSpeed="max"/>
    <trip id="veh226" depart="301.30" from="-162937136#2" to="-52733443#1" departLane="best" type="veh_passenger"/>
    <trip id="veh227" depart="302.64" from="-279485387#2" to="-52141985#1" departLane="best" type="veh_passenger"/>
    <trip id="veh228" depart="303.97" from="361951438#2" to="-52733443#1" departLane="best" type="veh_passenger"/>
    <trip id="veh229" depart="305.30" from="336503767#4" to="490366732#0" departLane="best" type="veh_passenger"/>
    <trip id="veh230" depart="306.64" from="-354033474" to="-167469372#0" departLane="best" type="veh_passenger"/>
    <trip id="veh231" depart="307.97" from="-1228585056" to="166458110#3" departLane="best" type="veh_passenger" departSpeed="max"/>
    <trip id="veh232" depart="309.30" from="97969622" to="-52733272#2" departLane="best" type="veh_passenger"/>
    <trip id="veh233" depart="310.64" from="252664251#4" to="393063209#5" departLane="best" type="veh_passenger"/>
    <trip id="veh234" depart="311.97" from="253106347#0" to="361951443#12" departLane="best" type="veh_passenger"/>
    <trip id="veh235" depart="313.30" from="644381438" to="-281471383#2" departLane="best" type="veh_passenger"/>
    <trip id="veh236" depart="314.64" from="-1376185094" to="-27293917#12" departLane="best" type="veh_passenger"/>
    <trip id="veh237" depart="315.97" from="-243919328" to="27294429#13" departLane="best" type="veh_passenger" departSpeed="max"/>
    <trip id="veh238" depart="317.30" from="164511564" to="-336377134#1" departLane="best" type="veh_passenger"/>
    <trip id="veh239" depart="318.64" from="27294964#0" to="365719707#1" departLane="best" type="veh_passenger"/>
    <trip id="veh240" depart="319.97" from="-27293951#0" to="243918581#3" departLane="best" type="veh_passenger"/>
    <trip id="veh241" depart="321.30" from="336500840#2" to="-243918552#1" departLane="best" type="veh_passenger"/>
    <trip id="veh242" depart="322.63" from="44307195#1" to="644503907" departLane="best" type="veh_passenger"/>
    <trip id="veh243" depart="323.97" from="-206450290" to="-151402049#0" departLane="best" type="veh_passenger"/>