<?xml version="1.0" encoding="UTF-8"?>
<nodes>

    <node id="N0" x="0.00" y="0.00" type="traffic_light"/>

    <node id="N1" x="-300.00" y="0.00" type="priority"/>

    <node id="N2" x="300.00" y="0.00" type="priority"/>

    <node id="N3" x="0.00" y="300.00" type="priority"/>

    <node id="N4" x="0.00" y="-300.00" type="priority"/>

</nodes>