<configuration>
    <input>
        <net-file value="sacre_coeur.net.xml"/>
        <route-files value="routes.rou.xml"/>
    </input>
    
    <time>
        <begin value="0"/>
        <end value="3600"/>
        <delay value="100"/> 
    </time>
</configuration>